273

O          3.59727        4.44063        2.29749
C          4.13338        3.16035        2.69892
H          4.24030        2.51917        1.80873
O          5.38081        3.38647        3.30503
C          3.18928        2.52494        3.72481
H          3.19525        3.16122        4.61878
C          1.75738        2.43115        3.17584
H          1.71472        1.64722        2.40765
C          1.28519        3.75174        2.55587
H          1.08007        4.47941        3.34962
C          2.33941        4.33459        1.59782
H          2.44768        3.66238        0.72976
C          2.05352        5.76537        1.11248
H          1.68402        6.37311        1.93737
H          2.99118        6.18423        0.73669
O          3.58072        1.17346        4.05711
O          0.84607        2.09430        4.25463
O          1.02656        5.85770        0.08055
O          8.84424        2.40833        2.52599
C          9.43626        3.72158        2.35726
H          9.56340        4.18854        3.34474
O         10.67611        3.56944        1.71962
C          8.51207        4.55834        1.46963
H          8.41936        4.04965        0.50124
C          7.12784        4.67986        2.12092
H          7.22896        5.26009        3.05081
C          6.57213        3.28954        2.47523
H          6.32793        2.74932        1.55257
C          7.61487        2.47976        3.28428
H          7.80197        3.00605        4.23575
C          7.24120        1.02163        3.59638
H          6.75873        0.53034        2.75377
H          8.16214        0.48029        3.82443
O          9.01508        5.89626        1.29169
O          6.21362        5.35456        1.23208
O          6.30592        0.89484        4.70998
H          9.87030        5.85480        0.80211
H          6.56369        6.25806        1.09772
H          6.72674        1.22435        5.52415
H          4.50418        1.16419        4.40533
H          1.13470        1.23312        4.61084
H          1.26598        5.28263       -0.66911
O          0.84948       10.66250        2.32302
C          1.39108        9.38046        2.71988
H          1.50171        8.75063        1.82356
O          2.63442        9.59176        3.33851
C          0.45176        8.73727        3.74335
H          0.46080        9.36952        4.64027
C         -0.97729        8.63630        3.19984
H         -1.01839        7.85516        2.43194
C         -1.45592        9.95468        2.58311
H         -1.66034       10.68752        3.37194
C         -0.40651       10.53504        1.61722
H         -0.28653        9.84832        0.76177
C         -0.70749       11.95210        1.10019
H         -1.07837       12.57700        1.91113
H          0.22450       12.36881        0.70808
O          0.86073        7.38626        4.06519
O         -1.88441        8.28539        4.28211
O         -1.74187       12.01303        0.07134
O          6.11881        8.63262        2.65543
C          6.69637        9.94187        2.41046
H          6.81839       10.46628        3.36938
O          7.93389        9.76231        1.78119
C          5.76445       10.71423        1.47535
H          5.69148       10.15388        0.53380
C          4.37282       10.84048        2.10492
H          4.44941       11.47616        3.00016
C          3.83683        9.46322        2.53365
H          3.61564        8.86120        1.64408
C          4.88363        8.72617        3.40536
H          5.05350        9.31801        4.32118
C          4.55803        7.27819        3.80546
H          4.16163        6.69947        2.97641
H          5.48996        6.80766        4.12795
O          6.23774       12.05389        1.23333
O          3.45848       11.44831        1.16735
O          3.56362        7.17078        4.87169
H          7.10255       12.00979        0.76091
H          3.82812       12.32730        0.94997
H          3.90704        7.59726        5.67768
H          1.76857        7.39545        4.45341
H         -1.55204        7.45198        4.66626
H         -1.52567       11.38902       -0.64602
O         -1.90431       16.88848        2.53045
C         -1.36002       15.57924        2.81690
H         -1.27164       15.01375        1.87604
O         -0.10222       15.74588        3.41761
C         -2.28878       14.87257        3.80828
H         -2.27638       15.45255        4.73956
C         -3.72188       14.79941        3.26620
H         -3.76276       14.06893        2.44919
C         -4.20991       16.15336        2.73480
H         -4.42523       16.82790        3.57187
C         -3.15767       16.80382        1.81500
H         -3.03340       16.17156        0.91889
C         -3.46136       18.24655        1.38128
H         -3.84821       18.83162        2.21423
H         -2.52339       18.68732        1.03150
O         -1.87821       13.50638        4.05529
O         -4.61741       14.37233        4.32912
O         -4.47085       18.35595        0.33075
O          3.38734       14.84110        2.72354
C          3.93424       16.16445        2.49928
H          4.02215       16.68730        3.46349
O          5.18741       16.02794        1.88999
C          3.00631       16.91917        1.54767
H          2.99746       16.37874        0.59186
C          1.58514       16.98332        2.11588
H          1.59219       17.65881        2.98363
C          1.08331       15.60868        2.58661
H          0.84944       14.98540        1.71511
C          2.14304       14.89802        3.46015
H          2.28550       15.48768        4.38154
C          1.84940       13.43709        3.83820
H          1.50049       12.85684        2.98876
H          2.78390       12.99335        4.18988
O          3.43193       18.28467        1.35875
O          0.67524       17.50010        1.11383
O          0.82055       13.28472        4.86619
H          4.32142       18.29208        0.93270
H          1.05600       18.34557        0.80386
H          1.12962       13.69305        5.69510
H         -0.96673       13.49651        4.43591
H         -4.26855       13.52304        4.66129
H         -4.20613       17.80690       -0.43015
O         14.18756        4.43552        2.26769
C         14.71676        3.15649        2.68004
H         14.82813        2.50963        1.79449
O         15.95978        3.38226        3.29545
C         13.76691        2.53256        3.70733
H         13.76415        3.18457        4.59001
C         12.34079        2.42779        3.14664
H         12.30704        1.64149        2.38064
C         11.87300        3.74945        2.52372
H         11.67311        4.47642        3.31944
C         12.92818        4.33582        1.56799
H         13.03534        3.67269        0.69303
C         12.65023        5.77742        1.10600
H         12.30745        6.37459        1.94983
H         13.58579        6.18928        0.71769
O         14.16334        1.19015        4.06542
O         11.41882        2.09013        4.21724
O         11.60196        5.91013        0.10000
O         19.43628        2.40794        2.57005
C         20.02038        3.72247        2.37656
H         20.13838        4.21273        3.35425
O         21.26338        3.56425        1.75004
C         19.09519        4.53162        1.46369
H         18.99977        3.99071        0.51314
C         17.71601        4.66702        2.12051
H         17.82485        5.24692        3.05017
C         17.15812        3.27870        2.47890
H         16.92426        2.73022        1.55822
C         18.19401        2.47899        3.30804
H         18.36053        3.01334        4.25879
C         17.82495        1.02047        3.62798
H         17.35341        0.51651        2.78680
H         18.74669        0.48666        3.87020
O         19.59221        5.86430        1.23698
O         16.80283        5.34749        1.23688
O         16.88029        0.89809        4.73455
H         20.45120        5.80836        0.75557
H         17.17144        6.24096        1.08579
H         17.29645        1.22556        5.55205
H         15.08663        1.19074        4.41541
H         11.70938        1.23331        4.58262
H         11.81093        5.34699       -0.66767
O         11.43951       10.66189        2.32587
C         11.97415        9.37774        2.72328
H         12.08077        8.74604        1.82772
O         13.21913        9.58611        3.33962
C         11.03313        8.74059        3.74975
H         11.05132        9.37158        4.64723
C          9.60066        8.65184        3.21273
H          9.54690        7.86168        2.45588
C          9.13042        9.96679        2.58317
H          8.92161       10.70439        3.36629
C         10.18382       10.54239        1.61946
H         10.30040        9.85830        0.76169
C          9.89246       11.96362        1.10915
H          9.54216       12.59151        1.92714
H         10.82224       12.37071        0.70201
O         11.43312        7.38600        4.06875
O          8.69001        8.32678        4.30150
O          8.84194       12.03745        0.09832
O         16.70297        8.62554        2.65993
C         17.28035        9.93437        2.41519
H         17.40281       10.45911        3.37420
O         18.51755        9.75599        1.78466
C         16.34994       10.70728        1.47878
H         16.27691       10.14621        0.53788
C         14.95718       10.83630        2.10530
H         15.03089       11.47253        3.00027
C         14.41997        9.45852        2.53239
H         14.19787        8.85826        1.64169
C         15.46462        8.71918        3.40455
H         15.63084        9.30989        4.32172
C         15.13497        7.27138        3.80278
H         14.73715        6.69422        2.97338
H         16.06529        6.79771        4.12500
O         16.82930       12.04450        1.23475
O         14.04527       11.44324        1.16431
O         14.13955        7.16607        4.86857
H         17.68472       11.99452        0.74641
H         14.41112       12.32488        0.95169
H         14.48293        7.59259        5.67458
H         12.34185        7.38902        4.45471
H          9.00587        7.48949        4.69114
H          9.05036       11.43003       -0.63500
O          8.68113       16.92187        2.52801
C          9.21386       15.60499        2.81081
H          9.29673       15.04442        1.86667
O         10.47169       15.75285        3.41708
C          8.28039       14.90594        3.80396
H          8.30755       15.48381        4.73608
C          6.84537       14.85265        3.27227
H          6.78683       14.10696        2.47034
C          6.37026       16.20079        2.71760
H          6.14247       16.88470        3.54363
C          7.42965       16.84937        1.80472
H          7.55602       16.22412        0.90469
C          7.13486       18.29882        1.38287
H          6.77772       18.88345        2.22924
H          8.06731       18.73110        1.00863
O          8.67233       13.53244        4.04579
O          5.94381       14.46693        4.34774
O          6.09684       18.43035        0.36212
O         13.96291       14.83323        2.74858
C         14.52055       16.15184        2.52267
H         14.61227       16.67591        3.48617
O         15.77207       16.00337        1.91350
C         13.59747       16.90826        1.56574
H         13.58370       16.35882        0.61520
C         12.17639       16.98546        2.13361
H         12.18620       17.65724        3.00443
C         11.66266       15.61178        2.59542
H         11.43349       14.99268        1.71961
C         12.71304       14.89511        3.47623
H         12.85025       15.48390        4.39905
C         12.41566       13.43372        3.85144
H         12.08067       12.85254        2.99717
H         13.34613       12.99229        4.21652
O         14.03257       18.26838        1.35996
O         11.27234       17.51462        1.13381
O         11.37320       13.27758        4.86492
H         14.91554       18.26186        0.92066
H         11.67450       18.34371        0.80760
H         11.66286       13.70119        5.69324
H          9.58372       13.50987        4.42575
H          6.26644       13.61189        4.69039
H          6.34321       17.90821       -0.42323
O          8.79849       13.40003       -2.12203
N          9.22379       12.09763       -2.12203
O         10.56429       11.78883       -2.12203
H          6.56679       12.31443       -2.12203
O          4.25529       11.93323       -2.12203
C          6.90569       11.27583       -2.12203
C          8.28359       11.04873       -2.12203
N          4.57269       10.59713       -2.12203
C          5.94759       10.21483       -2.12203
C          8.67419        9.71383       -2.12203
O          3.57539        9.66413       -2.12203
H          9.75399        9.52173       -2.12203
C          6.39039        8.84573       -2.12203
C          7.79299        8.59213       -2.12203
H          4.39799        7.91853       -2.57133
C          5.36189        7.71893       -2.12203
N          8.40339        7.30743       -2.12203
O          9.77679        7.23623       -2.12203
H          5.72689        6.86003       -2.69623
O          7.69009        6.14883       -2.12203
H          5.10009        7.43203       -1.09743
